data_none

_audit_creation_method generated by ABACUS

_cell_length_a 10.5835
_cell_length_b 10.5835
_cell_length_c 10.5835
_cell_angle_alpha 90
_cell_angle_beta 90
_cell_angle_gamma 90

loop_
_atom_site_label
_atom_site_fract_x
_atom_site_fract_y
_atom_site_fract_z
Si 0 0 0
Si 0 0 0.245664
Si 0 0.212753 0.122832
