data_none

_audit_creation_method generated by ABACUS

_cell_length_a 10.5835
_cell_length_b 10.5835
_cell_length_c 10.5835
_cell_angle_alpha 90
_cell_angle_beta 90
_cell_angle_gamma 90

loop_
_symmetry_equiv_pos_as_xyz
'x, +y, +z'
'+y, -x, +z'
'-x, -y, +z'
'-y, x, +z'
'-x, +y, +z'
'+y, x, +z'
'x, -y, +z'
'-y, -x, +z'
'-x, -y, -z-8299243/10000000'
'-y, x, -z-8299243/10000000'
'x, +y, -z-8299243/10000000'
'+y, -x, -z-8299243/10000000'
'x, -y, -z-8299243/10000000'
'-y, -x, -z-8299243/10000000'
'-x, +y, -z-8299243/10000000'
'+y, x, -z-8299243/10000000'
loop_
_atom_site_label
_atom_site_type_symbol
_atom_site_symmetry_multiplicity
_atom_site_fract_x
_atom_site_fract_y
_atom_site_fract_z
_atom_site_occupancy
Si Si 2 0.5 0.5 0.5 1
